<?xml version="1.0" encoding="UTF-8"?>

<!-- generated on 2025-05-20 11:49:18 by Eclipse SUMO netconvert Version 1.20.0
<configuration xmlns:xsi="http://www.w3.org/2001/XMLSchema-instance" xsi:noNamespaceSchemaLocation="http://sumo.dlr.de/xsd/netconvertConfiguration.xsd">

    <input>
        <osm-files value="temp/osm/tsmm1.osm"/>
    </input>

    <output>
        <output-file value="map.net.xml"/>
    </output>

    <projection>
        <proj.utm value="true"/>
    </projection>

    <processing>
        <geometry.remove value="true"/>
        <roundabouts.guess value="true"/>
    </processing>

    <tls_building>
        <tls.guess-signals value="true"/>
    </tls_building>

    <ramp_guessing>
        <ramps.guess value="true"/>
    </ramp_guessing>

    <edge_removal>
        <remove-edges.isolated value="true"/>
    </edge_removal>

    <junctions>
        <junctions.join value="true"/>
    </junctions>

    <pedestrian>
        <crossings.guess value="true"/>
        <walkingareas value="true"/>
    </pedestrian>

</configuration>
-->

<net version="1.20" junctionCornerDetail="5" walkingareas="true" limitTurnSpeed="5.50" xmlns:xsi="http://www.w3.org/2001/XMLSchema-instance" xsi:noNamespaceSchemaLocation="http://sumo.dlr.de/xsd/net_file.xsd">

    <location netOffset="-596672.77,-5284689.05" convBoundary="0.00,0.00,3350.52,3953.50" origBoundary="10.288869,47.708124,10.333759,47.743527" projParameter="+proj=utm +zone=32 +ellps=WGS84 +datum=WGS84 +units=m +no_defs"/>

    <type id="highway.primary" priority="12" numLanes="2" speed="27.78" disallow="tram rail_urban rail rail_electric rail_fast ship container cable_car subway aircraft wheelchair scooter drone" oneway="0"/>
    <type id="highway.residential" priority="3" numLanes="1" speed="13.89" disallow="tram rail_urban rail rail_electric rail_fast ship container cable_car subway aircraft wheelchair scooter drone" oneway="0"/>
    <type id="highway.secondary" priority="11" numLanes="1" speed="27.78" disallow="tram rail_urban rail rail_electric rail_fast ship container cable_car subway aircraft wheelchair scooter drone" oneway="0"/>
    <type id="highway.tertiary" priority="10" numLanes="1" speed="22.22" disallow="tram rail_urban rail rail_electric rail_fast ship container cable_car subway aircraft wheelchair scooter drone" oneway="0"/>

    <edge id=":10_0" function="internal">
        <lane id=":10_0_0" index="0" disallow="tram rail_urban rail rail_electric rail_fast ship container cable_car subway aircraft wheelchair scooter drone" speed="3.65" length="4.67" shape="1795.30,2246.70 1794.28,2245.68 1794.05,2244.81 1794.60,2244.11 1795.93,2243.56"/>
    </edge>
    <edge id=":104_0" function="internal">
        <lane id=":104_0_0" index="0" disallow="pedestrian tram rail_urban rail rail_electric rail_fast ship container cable_car subway aircraft wheelchair scooter drone" speed="10.48" length="20.16" shape="2570.27,1932.12 2573.44,1936.44 2574.83,1940.95 2574.45,1945.66 2572.29,1950.56"/>
        <lane id=":104_0_1" index="1" disallow="pedestrian tram rail_urban rail rail_electric rail_fast ship container cable_car subway aircraft wheelchair scooter drone" speed="9.36" length="15.92" shape="2567.96,1934.34 2570.46,1937.75 2571.56,1941.31 2571.26,1945.03 2569.55,1948.90"/>
    </edge>
    <edge id=":104_2" function="internal">
        <lane id=":104_2_0" index="0" disallow="pedestrian tram rail_urban rail rail_electric rail_fast ship container cable_car subway aircraft wheelchair scooter drone" speed="6.58" length="7.43" shape="2564.09,1945.57 2564.89,1943.76 2565.03,1942.03 2564.51,1940.36 2563.35,1938.77"/>
    </edge>
    <edge id=":104_w0" function="walkingarea">
        <lane id=":104_w0_0" index="0" allow="pedestrian" speed="2.78" length="9.60" width="3.20" shape="2571.42,1931.01 2569.11,1933.23 2566.81,1935.45 2564.50,1937.66 2562.19,1939.88"/>
    </edge>
    <edge id=":105_0" function="internal">
        <lane id=":105_0_0" index="0" disallow="tram rail_urban rail rail_electric rail_fast ship container cable_car subway aircraft wheelchair scooter drone" speed="7.62" length="11.10" shape="2482.86,1875.32 2480.61,1874.31 2478.22,1874.36 2475.68,1875.49 2473.00,1877.69"/>
    </edge>
    <edge id=":105_1" function="internal">
        <lane id=":105_1_0" index="0" disallow="tram rail_urban rail rail_electric rail_fast ship container cable_car subway aircraft wheelchair scooter drone" speed="13.89" length="21.10" shape="2482.86,1875.32 2465.53,1863.36"/>
        <lane id=":105_1_1" index="1" disallow="tram rail_urban rail rail_electric rail_fast ship container cable_car subway aircraft wheelchair scooter drone" speed="13.89" length="21.10" shape="2484.72,1872.71 2467.32,1860.70"/>
    </edge>
    <edge id=":105_3" function="internal">
        <lane id=":105_3_0" index="0" disallow="tram rail_urban rail rail_electric rail_fast ship container cable_car subway aircraft wheelchair scooter drone" speed="3.65" length="1.44" shape="2484.72,1872.71 2484.20,1871.37"/>
    </edge>
    <edge id=":105_11" function="internal">
        <lane id=":105_11_0" index="0" disallow="tram rail_urban rail rail_electric rail_fast ship container cable_car subway aircraft wheelchair scooter drone" speed="3.65" length="3.23" shape="2484.20,1871.37 2484.34,1870.48 2485.13,1870.06 2486.57,1870.10"/>
    </edge>
    <edge id=":105_4" function="internal">
        <lane id=":105_4_0" index="0" disallow="tram rail_urban rail rail_electric rail_fast ship container cable_car subway aircraft wheelchair scooter drone" speed="13.89" length="21.26" shape="2470.89,1855.40 2488.42,1867.50"/>
        <lane id=":105_4_1" index="1" disallow="tram rail_urban rail rail_electric rail_fast ship container cable_car subway aircraft wheelchair scooter drone" speed="13.89" length="21.26" shape="2469.10,1858.05 2486.57,1870.10"/>
    </edge>
    <edge id=":105_6" function="internal">
        <lane id=":105_6_0" index="0" disallow="tram rail_urban rail rail_electric rail_fast ship container cable_car subway aircraft wheelchair scooter drone" speed="8.99" length="5.37" shape="2469.10,1858.05 2473.08,1861.66"/>
    </edge>
    <edge id=":105_7" function="internal">
        <lane id=":105_7_0" index="0" disallow="tram rail_urban rail rail_electric rail_fast ship container cable_car subway aircraft wheelchair scooter drone" speed="3.65" length="1.44" shape="2469.10,1858.05 2469.65,1859.38"/>
    </edge>
    <edge id=":105_12" function="internal">
        <lane id=":105_12_0" index="0" disallow="tram rail_urban rail rail_electric rail_fast ship container cable_car subway aircraft wheelchair scooter drone" speed="8.99" length="15.56" shape="2473.08,1861.66 2473.48,1862.02 2475.21,1866.23 2474.30,1870.70 2470.75,1875.42"/>
    </edge>
    <edge id=":105_13" function="internal">
        <lane id=":105_13_0" index="0" disallow="tram rail_urban rail rail_electric rail_fast ship container cable_car subway aircraft wheelchair scooter drone" speed="3.65" length="3.23" shape="2469.65,1859.38 2469.54,1860.27 2468.76,1860.71 2467.32,1860.70"/>
    </edge>
    <edge id=":105_8" function="internal">
        <lane id=":105_8_0" index="0" disallow="tram rail_urban rail rail_electric rail_fast ship container cable_car subway aircraft wheelchair scooter drone" speed="6.12" length="9.06" shape="2466.24,1870.87 2467.78,1868.83 2468.17,1866.90 2467.42,1865.07 2465.53,1863.36"/>
    </edge>
    <edge id=":105_9" function="internal">
        <lane id=":105_9_0" index="0" disallow="tram rail_urban rail rail_electric rail_fast ship container cable_car subway aircraft wheelchair scooter drone" speed="10.09" length="20.16" shape="2468.49,1873.14 2473.12,1869.48 2477.67,1867.75 2482.16,1867.96 2486.57,1870.10"/>
    </edge>
    <edge id=":105_10" function="internal">
        <lane id=":105_10_0" index="0" disallow="tram rail_urban rail rail_electric rail_fast ship container cable_car subway aircraft wheelchair scooter drone" speed="3.65" length="2.34" shape="2468.49,1873.14 2469.91,1872.87 2470.76,1873.15"/>
    </edge>
    <edge id=":105_14" function="internal">
        <lane id=":105_14_0" index="0" disallow="tram rail_urban rail rail_electric rail_fast ship container cable_car subway aircraft wheelchair scooter drone" speed="3.65" length="2.34" shape="2470.76,1873.15 2471.04,1874.00 2470.75,1875.42"/>
    </edge>
    <edge id=":105_w0" function="walkingarea">
        <lane id=":105_w0_0" index="0" allow="pedestrian" speed="2.78" length="16.55" width="12.80" shape="2481.94,1876.63 2489.35,1866.19 2471.79,1854.07 2464.63,1864.68 2466.16,1866.24 2466.41,1867.07 2466.32,1867.92 2465.89,1868.82 2465.11,1869.74 2474.13,1878.82 2477.02,1876.57 2478.35,1876.02 2479.62,1875.84 2480.81,1876.04"/>
    </edge>
    <edge id=":107_0" function="internal">
        <lane id=":107_0_0" index="0" disallow="tram rail_urban rail rail_electric rail_fast ship container cable_car subway aircraft wheelchair scooter drone" speed="6.31" length="8.88" shape="1656.58,1768.07 1654.04,1767.91 1652.13,1768.56 1650.85,1770.03 1650.20,1772.31"/>
    </edge>
    <edge id=":107_1" function="internal">
        <lane id=":107_1_0" index="0" disallow="tram rail_urban rail rail_electric rail_fast ship container cable_car subway aircraft wheelchair scooter drone" speed="13.89" length="24.25" shape="1656.58,1768.07 1650.15,1766.54 1644.86,1764.78 1639.67,1762.70 1633.53,1760.17"/>
        <lane id=":107_1_1" index="1" disallow="tram rail_urban rail rail_electric rail_fast ship container cable_car subway aircraft wheelchair scooter drone" speed="13.89" length="24.25" shape="1657.46,1764.98 1651.07,1763.47 1645.89,1761.75 1640.81,1759.71 1634.72,1757.20"/>
    </edge>
    <edge id=":107_3" function="internal">
        <lane id=":107_3_0" index="0" disallow="tram rail_urban rail rail_electric rail_fast ship container cable_car subway aircraft wheelchair scooter drone" speed="10.34" length="5.55" shape="1657.46,1764.98 1652.26,1763.03"/>
    </edge>
    <edge id=":107_4" function="internal">
        <lane id=":107_4_0" index="0" disallow="tram rail_urban rail rail_electric rail_fast ship container cable_car subway aircraft wheelchair scooter drone" speed="3.65" length="1.45" shape="1657.46,1764.98 1656.52,1763.88"/>
    </edge>
    <edge id=":107_20" function="internal">
        <lane id=":107_20_0" index="0" disallow="tram rail_urban rail rail_electric rail_fast ship container cable_car subway aircraft wheelchair scooter drone" speed="10.34" length="17.17" shape="1652.26,1763.03 1652.12,1762.98 1648.53,1759.45 1646.69,1754.39 1646.60,1747.79"/>
    </edge>
    <edge id=":107_21" function="internal">
        <lane id=":107_21_0" index="0" disallow="tram rail_urban rail rail_electric rail_fast ship container cable_car subway aircraft wheelchair scooter drone" speed="3.65" length="3.24" shape="1656.52,1763.88 1656.35,1763.00 1656.96,1762.33 1658.34,1761.89"/>
    </edge>
    <edge id=":107_5" function="internal">
        <lane id=":107_5_0" index="0" disallow="tram rail_urban rail rail_electric rail_fast ship container cable_car subway aircraft wheelchair scooter drone" speed="8.07" length="13.48" shape="1652.97,1748.48 1653.00,1752.46 1654.06,1755.51 1656.13,1757.62 1659.22,1758.80"/>
    </edge>
    <edge id=":107_6" function="internal">
        <lane id=":107_6_0" index="0" disallow="tram rail_urban rail rail_electric rail_fast ship container cable_car subway aircraft wheelchair scooter drone" speed="13.89" length="23.96" shape="1652.97,1748.48 1650.20,1772.31"/>
        <lane id=":107_6_1" index="1" disallow="tram rail_urban rail rail_electric rail_fast ship container cable_car subway aircraft wheelchair scooter drone" speed="13.89" length="23.96" shape="1649.79,1748.14 1647.03,1771.91"/>
    </edge>
    <edge id=":107_8" function="internal">
        <lane id=":107_8_0" index="0" disallow="tram rail_urban rail rail_electric rail_fast ship container cable_car subway aircraft wheelchair scooter drone" speed="8.92" length="5.34" shape="1649.79,1748.14 1648.47,1753.31"/>
    </edge>
    <edge id=":107_9" function="internal">
        <lane id=":107_9_0" index="0" disallow="tram rail_urban rail rail_electric rail_fast ship container cable_car subway aircraft wheelchair scooter drone" speed="3.65" length="1.44" shape="1649.79,1748.14 1648.86,1749.24"/>
    </edge>
    <edge id=":107_22" function="internal">
        <lane id=":107_22_0" index="0" disallow="tram rail_urban rail rail_electric rail_fast ship container cable_car subway aircraft wheelchair scooter drone" speed="8.92" length="16.29" shape="1648.47,1753.31 1648.26,1754.13 1645.25,1757.64 1640.73,1758.66 1634.72,1757.20"/>
    </edge>
    <edge id=":107_23" function="internal">
        <lane id=":107_23_0" index="0" disallow="tram rail_urban rail rail_electric rail_fast ship container cable_car subway aircraft wheelchair scooter drone" speed="3.65" length="3.23" shape="1648.86,1749.24 1648.02,1749.56 1647.27,1749.07 1646.60,1747.79"/>
    </edge>
    <edge id=":107_10" function="internal">
        <lane id=":107_10_0" index="0" disallow="tram rail_urban rail rail_electric rail_fast ship container cable_car subway aircraft wheelchair scooter drone" speed="5.99" length="9.08" shape="1637.10,1751.26 1639.62,1751.87 1641.52,1751.44 1642.78,1749.97 1643.42,1747.45"/>
    </edge>
    <edge id=":107_11" function="internal">
        <lane id=":107_11_0" index="0" disallow="tram rail_urban rail rail_electric rail_fast ship container cable_car subway aircraft wheelchair scooter drone" speed="13.89" length="23.59" shape="1637.10,1751.26 1643.09,1753.73 1647.96,1755.70 1652.93,1757.33 1659.22,1758.80"/>
        <lane id=":107_11_1" index="1" disallow="tram rail_urban rail rail_electric rail_fast ship container cable_car subway aircraft wheelchair scooter drone" speed="13.89" length="23.59" shape="1635.91,1754.23 1641.95,1756.72 1646.93,1758.72 1652.00,1760.40 1658.34,1761.89"/>
    </edge>
    <edge id=":107_13" function="internal">
        <lane id=":107_13_0" index="0" disallow="tram rail_urban rail rail_electric rail_fast ship container cable_car subway aircraft wheelchair scooter drone" speed="11.09" length="6.13" shape="1635.91,1754.23 1641.27,1757.19"/>
    </edge>
    <edge id=":107_14" function="internal">
        <lane id=":107_14_0" index="0" disallow="tram rail_urban rail rail_electric rail_fast ship container cable_car subway aircraft wheelchair scooter drone" speed="3.65" length="1.44" shape="1635.91,1754.23 1636.72,1755.42"/>
    </edge>
    <edge id=":107_24" function="internal">
        <lane id=":107_24_0" index="0" disallow="tram rail_urban rail rail_electric rail_fast ship container cable_car subway aircraft wheelchair scooter drone" speed="11.09" length="16.57" shape="1641.27,1757.19 1641.37,1757.24 1645.04,1761.19 1646.93,1766.08 1647.03,1771.91"/>
    </edge>
    <edge id=":107_25" function="internal">
        <lane id=":107_25_0" index="0" disallow="tram rail_urban rail rail_electric rail_fast ship container cable_car subway aircraft wheelchair scooter drone" speed="3.65" length="3.23" shape="1636.72,1755.42 1636.80,1756.31 1636.13,1756.90 1634.72,1757.20"/>
    </edge>
    <edge id=":107_15" function="internal">
        <lane id=":107_15_0" index="0" disallow="tram rail_urban rail rail_electric rail_fast ship container cable_car subway aircraft wheelchair scooter drone" speed="8.86" length="14.20" shape="1640.68,1771.11 1640.59,1767.54 1639.37,1764.53 1637.02,1762.07 1633.53,1760.17"/>
    </edge>
    <edge id=":107_16" function="internal">
        <lane id=":107_16_0" index="0" disallow="tram rail_urban rail rail_electric rail_fast ship container cable_car subway aircraft wheelchair scooter drone" speed="13.89" length="23.85" shape="1640.68,1771.11 1643.42,1747.45"/>
        <lane id=":107_16_1" index="1" disallow="tram rail_urban rail rail_electric rail_fast ship container cable_car subway aircraft wheelchair scooter drone" speed="13.89" length="23.85" shape="1643.85,1771.51 1646.60,1747.79"/>
    </edge>
    <edge id=":107_18" function="internal">
        <lane id=":107_18_0" index="0" disallow="tram rail_urban rail rail_electric rail_fast ship container cable_car subway aircraft wheelchair scooter drone" speed="9.21" length="4.38" shape="1643.85,1771.51 1645.06,1767.30"/>
    </edge>
    <edge id=":107_19" function="internal">
        <lane id=":107_19_0" index="0" disallow="tram rail_urban rail rail_electric rail_fast ship container cable_car subway aircraft wheelchair scooter drone" speed="3.65" length="1.44" shape="1643.85,1771.51 1644.79,1770.42"/>
    </edge>
    <edge id=":107_26" function="internal">
        <lane id=":107_26_0" index="0" disallow="tram rail_urban rail rail_electric rail_fast ship container cable_car subway aircraft wheelchair scooter drone" speed="9.21" length="15.78" shape="1645.06,1767.30 1645.33,1766.34 1648.24,1763.01 1652.58,1761.53 1658.34,1761.89"/>
    </edge>
    <edge id=":107_27" function="internal">
        <lane id=":107_27_0" index="0" disallow="tram rail_urban rail rail_electric rail_fast ship container cable_car subway aircraft wheelchair scooter drone" speed="3.65" length="3.23" shape="1644.79,1770.42 1645.64,1770.12 1646.38,1770.62 1647.03,1771.91"/>
    </edge>
    <edge id=":107_w0" function="walkingarea">
        <lane id=":107_w0_0" index="0" allow="pedestrian" speed="2.78" length="18.43" width="12.80" shape="1656.14,1769.61 1659.66,1757.26 1656.47,1755.79 1655.43,1754.54 1654.77,1752.94 1654.47,1751.00 1654.56,1748.65 1641.83,1747.28 1641.18,1749.36 1640.58,1749.91 1639.80,1750.17 1638.84,1750.12 1637.69,1749.77 1632.93,1761.65 1635.04,1762.69 1636.71,1763.92 1637.96,1765.37 1638.77,1767.01 1639.14,1768.86 1639.09,1770.91 1651.79,1772.51 1652.48,1770.56 1653.11,1769.95 1653.93,1769.59 1654.94,1769.48"/>
    </edge>
    <edge id=":11_0" function="internal">
        <lane id=":11_0_0" index="0" disallow="tram rail_urban rail rail_electric rail_fast ship container cable_car subway aircraft wheelchair scooter drone" speed="3.65" length="4.67" shape="1837.48,2573.86 1836.51,2574.93 1835.66,2575.21 1834.93,2574.70 1834.31,2573.40"/>
    </edge>
    <edge id=":111_0" function="internal">
        <lane id=":111_0_0" index="0" disallow="tram rail_urban rail rail_electric rail_fast ship container cable_car subway aircraft wheelchair scooter drone" speed="13.89" length="19.83" shape="1570.37,2381.43 1571.11,2375.78 1571.23,2371.82 1570.49,2367.95 1568.65,2362.58"/>
        <lane id=":111_0_1" index="1" disallow="tram rail_urban rail rail_electric rail_fast ship container cable_car subway aircraft wheelchair scooter drone" speed="13.89" length="19.83" shape="1573.61,2381.41 1574.36,2375.43 1574.44,2371.24 1573.61,2367.15 1571.65,2361.47"/>
    </edge>
    <edge id=":111_2" function="internal">
        <lane id=":111_2_0" index="0" disallow="tram rail_urban rail rail_electric rail_fast ship container cable_car subway aircraft wheelchair scooter drone" speed="8.83" length="5.13" shape="1573.61,2381.41 1574.91,2376.45"/>
    </edge>
    <edge id=":111_3" function="internal">
        <lane id=":111_3_0" index="0" disallow="tram rail_urban rail rail_electric rail_fast ship container cable_car subway aircraft wheelchair scooter drone" speed="3.66" length="1.46" shape="1573.61,2381.41 1574.41,2380.19"/>
    </edge>
    <edge id=":111_11" function="internal">
        <lane id=":111_11_0" index="0" disallow="tram rail_urban rail rail_electric rail_fast ship container cable_car subway aircraft wheelchair scooter drone" speed="8.83" length="17.73" shape="1574.91,2376.45 1575.43,2374.48 1578.57,2370.63 1583.02,2369.85 1588.79,2372.15"/>
    </edge>
    <edge id=":111_12" function="internal">
        <lane id=":111_12_0" index="0" disallow="tram rail_urban rail rail_electric rail_fast ship container cable_car subway aircraft wheelchair scooter drone" speed="3.66" length="3.26" shape="1574.41,2380.19 1575.21,2379.78 1576.02,2380.18 1576.84,2381.38"/>
    </edge>
    <edge id=":111_4" function="internal">
        <lane id=":111_4_0" index="0" disallow="tram rail_urban rail rail_electric rail_fast ship container cable_car subway aircraft wheelchair scooter drone" speed="5.73" length="8.85" shape="1586.05,2377.96 1583.77,2377.04 1582.01,2377.30 1580.78,2378.74 1580.07,2381.36"/>
    </edge>
    <edge id=":111_5" function="internal">
        <lane id=":111_5_0" index="0" disallow="tram rail_urban rail rail_electric rail_fast ship container cable_car subway aircraft wheelchair scooter drone" speed="13.89" length="21.54" shape="1587.42,2375.06 1581.82,2372.09 1577.62,2369.86 1574.37,2366.83 1571.65,2361.47"/>
    </edge>
    <edge id=":111_6" function="internal">
        <lane id=":111_6_0" index="0" disallow="tram rail_urban rail rail_electric rail_fast ship container cable_car subway aircraft wheelchair scooter drone" speed="3.66" length="2.35" shape="1587.42,2375.06 1586.67,2373.82 1586.65,2372.92"/>
    </edge>
    <edge id=":111_13" function="internal">
        <lane id=":111_13_0" index="0" disallow="tram rail_urban rail rail_electric rail_fast ship container cable_car subway aircraft wheelchair scooter drone" speed="3.66" length="2.35" shape="1586.65,2372.92 1587.35,2372.36 1588.79,2372.15"/>
    </edge>
    <edge id=":111_7" function="internal">
        <lane id=":111_7_0" index="0" disallow="tram rail_urban rail rail_electric rail_fast ship container cable_car subway aircraft wheelchair scooter drone" speed="13.89" length="16.63" shape="1577.65,2359.25 1579.81,2363.40 1582.37,2365.52 1585.70,2367.00 1590.16,2369.24"/>
    </edge>
    <edge id=":111_8" function="internal">
        <lane id=":111_8_0" index="0" disallow="tram rail_urban rail rail_electric rail_fast ship container cable_car subway aircraft wheelchair scooter drone" speed="13.89" length="22.04" shape="1577.65,2359.25 1579.69,2365.27 1580.68,2370.11 1580.76,2375.05 1580.07,2381.36"/>
        <lane id=":111_8_1" index="1" disallow="tram rail_urban rail rail_electric rail_fast ship container cable_car subway aircraft wheelchair scooter drone" speed="13.89" length="22.04" shape="1574.65,2360.36 1576.65,2366.21 1577.56,2370.67 1577.56,2375.24 1576.84,2381.38"/>
    </edge>
    <edge id=":111_10" function="internal">
        <lane id=":111_10_0" index="0" disallow="tram rail_urban rail rail_electric rail_fast ship container cable_car subway aircraft wheelchair scooter drone" speed="3.65" length="1.44" shape="1574.65,2360.36 1574.32,2361.76"/>
    </edge>
    <edge id=":111_14" function="internal">
        <lane id=":111_14_0" index="0" disallow="tram rail_urban rail rail_electric rail_fast ship container cable_car subway aircraft wheelchair scooter drone" speed="3.65" length="3.23" shape="1574.32,2361.76 1573.71,2362.42 1572.82,2362.32 1571.65,2361.47"/>
    </edge>
    <edge id=":111_w0" function="walkingarea">
        <lane id=":111_w0_0" index="0" allow="pedestrian" speed="2.78" length="17.31" width="12.80" shape="1568.76,2381.44 1581.69,2381.35 1582.33,2379.44 1582.87,2378.96 1583.55,2378.80 1584.38,2378.95 1585.36,2379.42 1590.84,2367.78 1587.95,2366.28 1585.56,2365.28 1583.58,2364.42 1581.92,2363.29 1580.47,2361.52 1579.16,2358.69 1567.15,2363.14 1568.46,2366.85 1569.26,2369.69 1569.62,2372.11 1569.61,2374.56 1569.29,2377.52"/>
    </edge>
    <edge id=":1113004927_0" function="internal">
        <lane id=":1113004927_0_0" index="0" disallow="pedestrian tram rail_urban rail rail_electric rail_fast ship container cable_car subway aircraft wheelchair scooter drone" speed="13.89" length="12.71" shape="446.99,942.60 442.45,943.07 439.63,947.81 436.83,952.53 432.33,952.93"/>
        <lane id=":1113004927_0_1" index="1" disallow="pedestrian tram rail_urban rail rail_electric rail_fast ship container cable_car subway aircraft wheelchair scooter drone" speed="13.89" length="12.71" shape="446.99,942.60 443.04,942.81 440.40,946.40 437.77,949.97 433.85,950.12"/>
        <lane id=":1113004927_0_2" index="2" disallow="pedestrian tram rail_urban rail rail_electric rail_fast ship container cable_car subway aircraft wheelchair scooter drone" speed="13.89" length="12.71" shape="446.99,942.60 443.60,942.53 441.16,944.98 438.73,947.42 435.37,947.30"/>
        <lane id=":1113004927_0_3" index="3" disallow="pedestrian tram rail_urban rail rail_electric rail_fast ship container cable_car subway aircraft wheelchair scooter drone" speed="13.89" length="12.71" shape="446.99,942.60 444.13,942.24 441.93,943.57 439.74,944.89 436.89,944.49"/>
        <lane id=":1113004927_0_4" index="4" disallow="pedestrian tram rail_urban rail rail_electric rail_fast ship container cable_car subway aircraft wheelchair scooter drone" speed="13.89" length="12.71" shape="448.47,939.76 445.61,939.40 443.43,940.74 441.24,942.07 438.41,941.67"/>
        <lane id=":1113004927_0_5" index="5" disallow="pedestrian tram rail_urban rail rail_electric rail_fast ship container cable_car subway aircraft wheelchair scooter drone" speed="13.89" length="12.71" shape="448.47,939.76 446.06,939.07 444.19,939.33 442.32,939.58 439.94,938.86"/>
        <lane id=":1113004927_0_6" index="6" disallow="pedestrian tram rail_urban rail rail_electric rail_fast ship container cable_car subway aircraft wheelchair scooter drone" speed="13.89" length="12.71" shape="448.47,939.76 441.46,936.04"/>
    </edge>
    <edge id=":1113004927_7" function="internal">
        <lane id=":1113004927_7_0" index="0" disallow="pedestrian tram rail_urban rail rail_electric rail_fast ship container cable_car subway aircraft wheelchair scooter drone" speed="13.89" length="8.28" shape="442.98,933.23 445.34,933.94 447.19,933.68 449.04,933.40 451.42,934.08"/>
        <lane id=":1113004927_7_1" index="1" disallow="pedestrian tram rail_urban rail rail_electric rail_fast ship container cable_car subway aircraft wheelchair scooter drone" speed="13.89" length="8.28" shape="442.98,933.23 449.94,936.92"/>
    </edge>
    <edge id=":1113005105_0" function="internal">
        <lane id=":1113005105_0_0" index="0" disallow="tram rail_urban rail rail_electric rail_fast ship container cable_car subway aircraft wheelchair scooter drone" speed="13.89" length="10.86" shape="665.38,1040.23 663.19,1038.37 662.70,1035.86 662.22,1033.35 660.03,1031.49"/>
        <lane id=":1113005105_0_1" index="1" disallow="tram rail_urban rail rail_electric rail_fast ship container cable_car subway aircraft wheelchair scooter drone" speed="13.89" length="10.86" shape="666.46,1037.22 664.27,1035.36 663.79,1032.85 663.30,1030.34 661.11,1028.48"/>
    </edge>
    <edge id=":1113005105_2" function="internal">
        <lane id=":1113005105_2_0" index="0" disallow="tram rail_urban rail rail_electric rail_fast ship container cable_car subway aircraft wheelchair scooter drone" speed="13.89" length="9.12" shape="663.28,1022.46 666.15,1022.43 668.13,1020.81 670.11,1019.18 672.98,1019.16"/>
        <lane id=":1113005105_2_1" index="1" disallow="tram rail_urban rail rail_electric rail_fast ship container cable_car subway aircraft wheelchair scooter drone" speed="13.89" length="9.12" shape="663.28,1022.46 665.77,1022.83 667.59,1022.31 669.41,1021.80 671.90,1022.17"/>
        <lane id=":1113005105_2_2" index="2" disallow="tram rail_urban rail rail_electric rail_fast ship container cable_car subway aircraft wheelchair scooter drone" speed="13.89" length="9.12" shape="662.20,1025.47 664.68,1025.84 666.50,1025.32 668.32,1024.81 670.81,1025.18"/>
        <lane id=":1113005105_2_3" index="3" disallow="tram rail_urban rail rail_electric rail_fast ship container cable_car subway aircraft wheelchair scooter drone" speed="13.89" length="9.12" shape="662.20,1025.47 669.72,1028.19"/>
    </edge>
    <edge id=":1113005105_w0" function="walkingarea">
        <lane id=":1113005105_w0_0" index="0" allow="pedestrian" speed="2.78" length="14.71" width="25.60" shape="664.83,1041.73 673.53,1017.65 671.47,1017.41 669.94,1018.12 668.68,1019.30 667.41,1020.49 665.88,1021.19 663.83,1020.96 659.48,1033.00 661.22,1034.13 661.94,1035.65 662.16,1037.36 662.38,1039.08 663.10,1040.60"/>
    </edge>
    <edge id=":11185127847_0" function="internal">
        <lane id=":11185127847_0_0" index="0" disallow="tram rail_urban rail rail_electric rail_fast ship container cable_car subway aircraft wheelchair scooter drone" speed="16.67" length="8.54" shape="1100.13,1897.03 1098.37,1895.23 1096.61,1894.54 1094.85,1893.85 1093.10,1892.05"/>
        <lane id=":11185127847_0_1" index="1" disallow="tram rail_urban rail rail_electric rail_fast ship container cable_car subway aircraft wheelchair scooter drone" speed="16.67" length="8.54" shape="1102.82,1895.29 1101.06,1893.49 1099.30,1892.80 1097.54,1892.11 1095.78,1890.31"/>
        <lane id=":11185127847_0_2" index="2" disallow="tram rail_urban rail rail_electric rail_fast ship container cable_car subway aircraft wheelchair scooter drone" speed="16.67" length="8.54" shape="1102.82,1895.29 1098.47,1888.57"/>
    </edge>
    <edge id=":11185127847_3" function="internal">
        <lane id=":11185127847_3_0" index="0" disallow="tram rail_urban rail rail_electric rail_fast ship container cable_car subway aircraft wheelchair scooter drone" speed="16.67" length="8.81" shape="1106.52,1883.35 1107.44,1885.69 1107.36,1887.58 1107.27,1889.47 1108.19,1891.81"/>
        <lane id=":11185127847_3_1" index="1" disallow="tram rail_urban rail rail_electric rail_fast ship container cable_car subway aircraft wheelchair scooter drone" speed="16.67" length="8.81" shape="1103.84,1885.09 1104.76,1887.43 1104.67,1889.32 1104.58,1891.21 1105.50,1893.55"/>
    </edge>
    <edge id=":11185127847_w0" function="walkingarea">
        <lane id=":11185127847_w0_0" index="0" allow="pedestrian" speed="2.78" length="12.17" width="19.20" shape="1098.79,1897.90 1109.53,1890.93 1108.58,1887.94 1108.70,1886.71 1108.82,1885.48 1108.64,1884.11 1107.86,1882.48 1091.75,1892.92 1094.10,1895.02 1095.27,1895.41 1096.45,1895.80 1097.62,1896.52"/>
    </edge>
    <edge id=":11185127848_0" function="internal">