<?xml version="1.0" encoding="UTF-8"?>

<!-- generated on 2025-05-20 10:36:54 by Eclipse SUMO netedit Version 1.23.1
<neteditConfiguration xmlns:xsi="http://www.w3.org/2001/XMLSchema-instance" xsi:noNamespaceSchemaLocation="http://sumo.dlr.de/xsd/neteditConfiguration.xsd">

    <input>
        <sumo-net-file value="C:\Users\ptren\Uni Master\SustAInability\Sustainable_Mobility\sustainability-backend\temp\xml\cleanmap.net.xml"/>
    </input>

    <output>
        <output-file value="C:\Users\ptren\Uni Master\SustAInability\Sustainable_Mobility\sustainability-backend\temp\xml\cleanmap.net.xml"/>
    </output>

    <processing>
        <geometry.min-radius.fix.railways value="false"/>
        <geometry.avoid-overlap value="false"/>
        <geometry.max-grade.fix value="false"/>
        <offset.disable-normalization value="true"/>
        <lefthand value="0"/>
    </processing>

    <junctions>
        <no-internal-links value="false"/>
        <no-turnarounds value="true"/>
        <junctions.corner-detail value="5"/>
        <junctions.limit-turn-speed value="5.50"/>
        <rectangular-lane-cut value="0"/>
    </junctions>

    <pedestrian>
        <walkingareas value="1"/>
    </pedestrian>

</neteditConfiguration>
-->

<net version="1.20" junctionCornerDetail="5" walkingareas="true" limitTurnSpeed="5.50" avoidOverlap="0" xmlns:xsi="http://www.w3.org/2001/XMLSchema-instance" xsi:noNamespaceSchemaLocation="http://sumo.dlr.de/xsd/net_file.xsd">

    <location netOffset="-596697.36,-5284689.05" convBoundary="628.20,0.00,3335.49,3412.59" origBoundary="10.289200,47.708124,10.333887,47.743257" projParameter="+proj=utm +zone=32 +ellps=WGS84 +datum=WGS84 +units=m +no_defs"/>

    <type id="highway.pedestrian" priority="1" numLanes="1" speed="2.78" allow="pedestrian" oneway="1" width="2.00"/>
    <type id="highway.primary" priority="12" numLanes="2" speed="27.78" disallow="tram rail_urban rail rail_electric rail_fast ship container cable_car subway aircraft wheelchair scooter drone" oneway="0"/>
    <type id="highway.primary_link" priority="7" numLanes="1" speed="22.22" disallow="tram rail_urban rail rail_electric rail_fast ship container cable_car subway aircraft wheelchair scooter drone" oneway="0"/>
    <type id="highway.residential" priority="3" numLanes="1" speed="13.89" disallow="tram rail_urban rail rail_electric rail_fast ship container cable_car subway aircraft wheelchair scooter drone" oneway="0"/>
    <type id="highway.secondary" priority="11" numLanes="1" speed="27.78" disallow="tram rail_urban rail rail_electric rail_fast ship container cable_car subway aircraft wheelchair scooter drone" oneway="0"/>
    <type id="highway.tertiary" priority="10" numLanes="1" speed="22.22" disallow="tram rail_urban rail rail_electric rail_fast ship container cable_car subway aircraft wheelchair scooter drone" oneway="0"/>
    <type id="highway.tertiary_link" priority="5" numLanes="1" speed="22.22" disallow="tram rail_urban rail rail_electric rail_fast ship container cable_car subway aircraft wheelchair scooter drone" oneway="0"/>

    <edge id=":11185127847_0" function="internal">
        <lane id=":11185127847_0_0" index="0" disallow="tram rail_urban rail rail_electric rail_fast ship container cable_car subway aircraft wheelchair scooter drone" speed="16.67" length="8.21" shape="1078.22,1895.29 1076.71,1893.41 1075.38,1892.37 1074.04,1891.32 1072.53,1889.44"/>
        <lane id=":11185127847_0_1" index="1" disallow="tram rail_urban rail rail_electric rail_fast ship container cable_car subway aircraft wheelchair scooter drone" speed="16.67" length="8.21" shape="1080.91,1893.55 1079.39,1891.67 1078.06,1890.62 1076.73,1889.58 1075.21,1887.70"/>
        <lane id=":11185127847_0_2" index="2" disallow="tram rail_urban rail rail_electric rail_fast ship container cable_car subway aircraft wheelchair scooter drone" speed="16.67" length="8.21" shape="1080.91,1893.55 1079.81,1891.40 1079.40,1889.75 1078.99,1888.11 1077.90,1885.96"/>
    </edge>
    <edge id=":11185127847_w0" function="walkingarea">
        <lane id=":11185127847_w0_0" index="0" allow="pedestrian" speed="2.78" length="8.16" width="3.20" shape="1076.88,1896.16 1082.25,1892.68 1080.98,1889.95 1080.75,1888.88 1080.52,1887.82 1080.08,1886.61 1079.24,1885.09 1071.19,1890.31 1073.16,1892.59 1074.03,1893.24 1074.91,1893.88 1075.84,1894.77"/>
    </edge>
    <edge id=":11185127848_0" function="internal">
        <lane id=":11185127848_0_0" index="0" disallow="tram rail_urban rail rail_electric rail_fast ship container cable_car subway aircraft wheelchair scooter drone" speed="16.67" length="8.21" shape="1114.22,2171.98 1114.05,2169.58 1113.56,2167.95 1113.07,2166.33 1112.91,2163.93"/>
        <lane id=":11185127848_0_1" index="1" disallow="tram rail_urban rail rail_electric rail_fast ship container cable_car subway aircraft wheelchair scooter drone" speed="16.67" length="8.21" shape="1117.42,2172.09 1117.25,2169.69 1116.76,2168.07 1116.27,2166.45 1116.11,2164.04"/>
        <lane id=":11185127848_0_2" index="2" disallow="tram rail_urban rail rail_electric rail_fast ship container cable_car subway aircraft wheelchair scooter drone" speed="16.67" length="8.21" shape="1117.42,2172.09 1117.75,2169.71 1118.36,2168.13 1118.97,2166.55 1119.30,2164.16"/>
    </edge>
    <edge id=":11185127848_w0" function="walkingarea">
        <lane id=":11185127848_w0_0" index="0" allow="pedestrian" speed="2.78" length="8.16" width="3.20" shape="1120.90,2164.22 1111.31,2163.87 1111.61,2166.86 1111.96,2167.90 1112.31,2168.93 1112.56,2170.19 1112.62,2171.92 1119.01,2172.15 1119.54,2169.19 1119.96,2168.18 1120.38,2167.18 1120.72,2165.94"/>
    </edge>
    <edge id=":11185127855_0" function="internal">
        <lane id=":11185127855_0_0" index="0" disallow="pedestrian tram rail_urban rail rail_electric rail_fast ship container cable_car subway aircraft wheelchair scooter drone" speed="16.67" length="8.21" shape="1326.38,2944.81 1324.13,2943.94 1322.45,2943.69 1320.78,2943.45 1318.53,2942.58"/>
        <lane id=":11185127855_0_1" index="1" disallow="pedestrian tram rail_urban rail rail_electric rail_fast ship container cable_car subway aircraft wheelchair scooter drone" speed="16.67" length="8.21" shape="1326.38,2944.81 1324.36,2943.49 1323.18,2942.27 1322.01,2941.05 1319.99,2939.73"/>
        <lane id=":11185127855_0_2" index="2" disallow="pedestrian tram rail_urban rail rail_electric rail_fast ship container cable_car subway aircraft wheelchair scooter drone" speed="16.67" length="8.21" shape="1327.84,2941.96 1325.82,2940.65 1324.65,2939.43 1323.47,2938.20 1321.45,2936.89"/>
    </edge>
    <edge id=":11185127856_0" function="internal">
        <lane id=":11185127856_0_0" index="0" disallow="pedestrian tram rail_urban rail rail_electric rail_fast ship container cable_car subway aircraft wheelchair scooter drone" speed="16.67" length="8.21" shape="1431.55,2981.53 1433.78,2982.45 1435.45,2982.73 1437.13,2983.01 1439.35,2983.94"/>
        <lane id=":11185127856_0_1" index="1" disallow="pedestrian tram rail_urban rail rail_electric rail_fast ship container cable_car subway aircraft wheelchair scooter drone" speed="16.67" length="8.21" shape="1431.55,2981.53 1433.54,2982.89 1434.69,2984.14 1435.84,2985.39 1437.83,2986.75"/>
        <lane id=":11185127856_0_2" index="2" disallow="pedestrian tram rail_urban rail rail_electric rail_fast ship container cable_car subway aircraft wheelchair scooter drone" speed="16.67" length="8.21" shape="1430.03,2984.35 1432.02,2985.71 1433.17,2986.95 1434.32,2988.20 1436.30,2989.56"/>
        <lane id=":11185127856_0_3" index="3" disallow="pedestrian tram rail_urban rail rail_electric rail_fast ship container cable_car subway aircraft wheelchair scooter drone" speed="16.67" length="8.21" shape="1428.51,2987.16 1430.50,2988.52 1431.64,2989.77 1432.79,2991.01 1434.78,2992.38"/>
    </edge>
    <edge id=":11185127858_0" function="internal">
        <lane id=":11185127858_0_0" index="0" disallow="tram rail_urban rail rail_electric rail_fast ship container cable_car subway aircraft wheelchair scooter drone" speed="13.89" length="8.00" shape="1926.20,2561.95 1924.89,2569.84"/>
    </edge>
    <edge id=":11185127858_1" function="internal">
        <lane id=":11185127858_1_0" index="0" disallow="tram rail_urban rail rail_electric rail_fast ship container cable_car subway aircraft wheelchair scooter drone" speed="13.89" length="8.40" shape="1921.73,2569.31 1921.65,2566.80 1920.81,2565.10 1919.98,2563.41 1919.89,2560.90"/>
        <lane id=":11185127858_1_1" index="1" disallow="tram rail_urban rail rail_electric rail_fast ship container cable_car subway aircraft wheelchair scooter drone" speed="13.89" length="8.40" shape="1921.73,2569.31 1923.05,2561.42"/>
    </edge>
    <edge id=":11185127858_w0" function="walkingarea">
        <lane id=":11185127858_w0_0" index="0" allow="pedestrian" speed="2.78" length="7.51" width="9.60" shape="1927.78,2562.21 1918.31,2560.63 1918.63,2563.76 1919.23,2564.84 1919.84,2565.92 1920.22,2567.25 1920.16,2569.05 1926.47,2570.10"/>
    </edge>
    <edge id=":11185127859_0" function="internal">
        <lane id=":11185127859_0_0" index="0" disallow="tram rail_urban rail rail_electric rail_fast ship container cable_car subway aircraft wheelchair scooter drone" speed="16.67" length="8.21" shape="1660.07,3150.20 1662.37,3150.93 1664.06,3151.06 1665.75,3151.19 1668.05,3151.91"/>
        <lane id=":11185127859_0_1" index="1" disallow="tram rail_urban rail rail_electric rail_fast ship container cable_car subway aircraft wheelchair scooter drone" speed="16.67" length="8.21" shape="1658.80,3153.14 1661.10,3153.86 1662.79,3153.99 1664.48,3154.13 1666.78,3154.85"/>
        <lane id=":11185127859_0_2" index="2" disallow="tram rail_urban rail rail_electric rail_fast ship container cable_car subway aircraft wheelchair scooter drone" speed="16.67" length="8.21" shape="1658.80,3153.14 1660.90,3154.32 1662.16,3155.46 1663.41,3156.60 1665.51,3157.79"/>
    </edge>
    <edge id=":11185127859_w0" function="walkingarea">
        <lane id=":11185127859_w0_0" index="0" allow="pedestrian" speed="2.78" length="8.16" width="3.20" shape="1664.88,3159.25 1668.69,3150.44 1665.79,3149.64 1664.70,3149.59 1663.61,3149.54 1662.34,3149.31 1660.71,3148.73 1658.17,3154.61 1660.74,3156.17 1661.52,3156.93 1662.30,3157.69 1663.34,3158.46"/>
    </edge>
    <edge id=":11185127860_0" function="internal">
        <lane id=":11185127860_0_0" index="0" disallow="pedestrian tram rail_urban rail rail_electric rail_fast ship container cable_car subway aircraft wheelchair scooter drone" speed="16.67" length="8.40" shape="1823.20,3246.77 1820.86,3245.89 1818.98,3246.02 1817.10,3246.15 1814.74,3245.29"/>
        <lane id=":11185127860_0_1" index="1" disallow="pedestrian tram rail_urban rail rail_electric rail_fast ship container cable_car subway aircraft wheelchair scooter drone" speed="16.67" length="8.40" shape="1823.20,3246.77 1816.42,3242.56"/>
        <lane id=":11185127860_0_2" index="2" disallow="pedestrian tram rail_urban rail rail_electric rail_fast ship container cable_car subway aircraft wheelchair scooter drone" speed="16.67" length="8.40" shape="1824.90,3244.06 1818.09,3239.84"/>
        <lane id=":11185127860_0_3" index="3" disallow="pedestrian tram rail_urban rail rail_electric rail_fast ship container cable_car subway aircraft wheelchair scooter drone" speed="16.67" length="8.40" shape="1824.90,3244.06 1823.07,3242.32 1822.34,3240.57 1821.60,3238.82 1819.76,3237.11"/>
    </edge>
    <edge id=":1377821820_0" function="internal">
        <lane id=":1377821820_0_0" index="0" disallow="pedestrian tram rail_urban rail rail_electric rail_fast ship container cable_car subway aircraft wheelchair scooter drone" speed="6.36" length="4.74" shape="2539.08,1934.49 2539.83,1935.46 2540.28,1936.51 2540.44,1937.65 2540.31,1938.87"/>
    </edge>
    <edge id=":1377821820_1" function="internal">
        <lane id=":1377821820_1_0" index="0" disallow="pedestrian tram rail_urban rail rail_electric rail_fast ship container cable_car subway aircraft wheelchair scooter drone" speed="4.05" length="1.58" shape="2537.18,1938.17 2537.23,1937.76 2537.18,1937.38 2537.02,1937.03 2536.78,1936.71"/>
    </edge>
    <edge id=":1377821820_w0" function="walkingarea">
        <lane id=":1377821820_w0_0" index="0" allow="pedestrian" speed="2.78" length="3.20" width="3.20" shape="2540.24,1933.38 2537.93,1935.60 2535.62,1937.82"/>
    </edge>
    <edge id=":1550749066_0" function="internal">
        <lane id=":1550749066_0_0" index="0" disallow="pedestrian tram rail_urban rail rail_electric rail_fast ship container cable_car subway aircraft wheelchair scooter drone" speed="16.67" length="0.30" shape="3311.40,1794.17 3311.27,1794.43"/>
        <lane id=":1550749066_0_1" index="1" disallow="pedestrian tram rail_urban rail rail_electric rail_fast ship container cable_car subway aircraft wheelchair scooter drone" speed="16.67" length="0.30" shape="3308.56,1792.70 3308.42,1792.97"/>
        <lane id=":1550749066_0_2" index="2" disallow="pedestrian tram rail_urban rail rail_electric rail_fast ship container cable_car subway aircraft wheelchair scooter drone" speed="16.67" length="0.30" shape="3305.72,1791.23 3305.58,1791.50"/>
        <lane id=":1550749066_0_3" index="3" disallow="pedestrian tram rail_urban rail rail_electric rail_fast ship container cable_car subway aircraft wheelchair scooter drone" speed="16.67" length="0.30" shape="3302.87,1789.76 3302.73,1790.03"/>
    </edge>
    <edge id=":1550749072_0" function="internal">
        <lane id=":1550749072_0_0" index="0" disallow="tram rail_urban rail rail_electric rail_fast ship container cable_car subway aircraft wheelchair scooter drone" speed="13.89" length="14.15" shape="2138.29,1781.97 2124.14,1782.21"/>
    </edge>
    <edge id=":1550749072_1" function="internal">
        <lane id=":1550749072_1_0" index="0" disallow="tram rail_urban rail rail_electric rail_fast ship container cable_car subway aircraft wheelchair scooter drone" speed="7.70" length="3.94" shape="2138.29,1781.97 2134.40,1781.33"/>
    </edge>
    <edge id=":1550749072_2" function="internal">
        <lane id=":1550749072_2_0" index="0" disallow="tram rail_urban rail rail_electric rail_fast ship container cable_car subway aircraft wheelchair scooter drone" speed="3.65" length="1.44" shape="2138.29,1781.97 2137.10,1781.15"/>
    </edge>
    <edge id=":1550749072_9" function="internal">
        <lane id=":1550749072_9_0" index="0" disallow="tram rail_urban rail rail_electric rail_fast ship container cable_car subway aircraft wheelchair scooter drone" speed="7.70" length="11.05" shape="2134.40,1781.33 2134.11,1781.28 2131.44,1779.41 2130.25,1776.37 2130.56,1772.15"/>
    </edge>
    <edge id=":1550749072_10" function="internal">
        <lane id=":1550749072_10_0" index="0" disallow="tram rail_urban rail rail_electric rail_fast ship container cable_car subway aircraft wheelchair scooter drone" speed="3.65" length="3.23" shape="2137.10,1781.15 2136.72,1780.34 2137.14,1779.55 2138.36,1778.77"/>
    </edge>
    <edge id=":1550749072_3" function="internal">
        <lane id=":1550749072_3_0" index="0" disallow="tram rail_urban rail rail_electric rail_fast ship container cable_car subway aircraft wheelchair scooter drone" speed="6.13" length="9.06" shape="2133.69,1772.83 2133.50,1775.38 2134.22,1777.22 2135.84,1778.35 2138.36,1778.77"/>
    </edge>
    <edge id=":1550749072_4" function="internal">
        <lane id=":1550749072_4_0" index="0" disallow="tram rail_urban rail rail_electric rail_fast ship container cable_car subway aircraft wheelchair scooter drone" speed="9.05" length="14.47" shape="2133.69,1772.83 2132.36,1776.75 2130.32,1779.62 2127.59,1781.44 2124.14,1782.21"/>
    </edge>
    <edge id=":1550749072_5" function="internal">
        <lane id=":1550749072_5_0" index="0" disallow="tram rail_urban rail rail_electric rail_fast ship container cable_car subway aircraft wheelchair scooter drone" speed="3.65" length="1.44" shape="2133.69,1772.83 2132.65,1773.83"/>
    </edge>
    <edge id=":1550749072_11" function="internal">
        <lane id=":1550749072_11_0" index="0" disallow="tram rail_urban rail rail_electric rail_fast ship container cable_car subway aircraft wheelchair scooter drone" speed="3.65" length="3.23" shape="2132.65,1773.83 2131.78,1774.05 2131.09,1773.49 2130.56,1772.15"/>
    </edge>
    <edge id=":1550749072_6" function="internal">
        <lane id=":1550749072_6_0" index="0" disallow="tram rail_urban rail rail_electric rail_fast ship container cable_car subway aircraft wheelchair scooter drone" speed="7.72" length="10.31" shape="2123.93,1779.02 2126.30,1778.46 2128.19,1777.13 2129.61,1775.03 2130.56,1772.15"/>
    </edge>
    <edge id=":1550749072_7" function="internal">
        <lane id=":1550749072_7_0" index="0" disallow="tram rail_urban rail rail_electric rail_fast ship container cable_car subway aircraft wheelchair scooter drone" speed="13.89" length="14.42" shape="2123.93,1779.02 2138.36,1778.77"/>
    </edge>
    <edge id=":1550749072_8" function="internal">
        <lane id=":1550749072_8_0" index="0" disallow="tram rail_urban rail rail_electric rail_fast ship container cable_car subway aircraft wheelchair scooter drone" speed="3.65" length="1.44" shape="2123.93,1779.02 2125.18,1779.74"/>
    </edge>
    <edge id=":1550749072_12" function="internal">
        <lane id=":1550749072_12_0" index="0" disallow="tram rail_urban rail rail_electric rail_fast ship container cable_car subway aircraft wheelchair scooter drone" speed="3.65" length="3.23" shape="2125.18,1779.74 2125.63,1780.51 2125.29,1781.34 2124.14,1782.21"/>
    </edge>
    <edge id=":1550749072_w0" function="walkingarea">
        <lane id=":1550749072_w0_0" index="0" allow="pedestrian" speed="2.78" length="10.29" width="6.40" shape="2138.25,1783.57 2138.39,1777.17 2136.26,1776.69 2135.61,1776.13 2135.22,1775.36 2135.10,1774.37 2135.25,1773.18 2129.00,1771.80 2127.90,1774.81 2127.12,1775.89 2126.18,1776.68 2125.08,1777.19 2123.83,1777.42 2124.25,1783.81"/>
    </edge>
    <edge id=":1550749184_0" function="internal">
        <lane id=":1550749184_0_0" index="0" disallow="pedestrian tram rail_urban rail rail_electric rail_fast ship container cable_car subway aircraft wheelchair scooter drone" speed="16.67" length="0.10" shape="2556.54,2915.60 2556.46,2915.58"/>
        <lane id=":1550749184_0_1" index="1" disallow="pedestrian tram rail_urban rail rail_electric rail_fast ship container cable_car subway aircraft wheelchair scooter drone" speed="16.67" length="0.10" shape="2557.14,2912.46 2557.22,2912.48"/>
    </edge>
    <edge id=":1550749184_w0" function="walkingarea">
        <lane id=":1550749184_w0_0" index="0" allow="pedestrian" speed="2.78" length="0.10" width="3.20" shape="2557.60,2910.92 2556.84,2914.03 2556.08,2917.14"/>
    </edge>
    <edge id=":1550800373_0" function="internal">
        <lane id=":1550800373_0_0" index="0" disallow="tram rail_urban rail rail_electric rail_fast ship container cable_car subway aircraft wheelchair scooter drone" speed="13.89" length="7.96" shape="1899.35,1337.11 1895.99,1344.32"/>
    </edge>
    <edge id=":1550800373_1" function="internal">
        <lane id=":1550800373_1_0" index="0" disallow="tram rail_urban rail rail_electric rail_fast ship container cable_car subway aircraft wheelchair scooter drone" speed="13.89" length="9.04" shape="1893.06,1343.03 1893.75,1340.33 1893.62,1338.26 1893.64,1336.28 1894.77,1333.84"/>
        <lane id=":1550800373_1_1" index="1" disallow="tram rail_urban rail rail_electric rail_fast ship container cable_car subway aircraft wheelchair scooter drone" speed="13.89" length="9.04" shape="1893.06,1343.03 1894.12,1340.73 1894.94,1339.21 1895.91,1337.76 1897.38,1335.70"/>
    </edge>
    <edge id=":1550800373_w0" function="walkingarea">
        <lane id=":1550800373_w0_0" index="0" allow="pedestrian" speed="2.78" length="7.56" width="6.40" shape="1900.67,1338.05 1893.47,1332.90 1892.50,1334.67 1892.18,1336.13 1892.22,1337.47 1892.33,1338.84 1892.22,1340.42 1891.60,1342.38 1897.45,1344.97"/>
    </edge>
    <edge id=":1550800449_0" function="internal">
        <lane id=":1550800449_0_0" index="0" allow="pedestrian bus" speed="4.17" length="13.14" width="2.00" shape="1982.75,1620.52 1980.88,1624.01 1979.72,1627.25 1979.27,1630.22 1979.55,1632.94"/>
    </edge>
    <edge id=":1550800449_1" function="internal">
        <lane id=":1550800449_1_0" index="0" disallow="tram rail_urban rail rail_electric rail_fast ship container cable_car subway aircraft wheelchair scooter drone" speed="3.65" length="4.67" shape="1982.75,1620.52 1981.44,1621.12 1980.55,1621.04 1980.08,1620.28 1980.03,1618.84"/>
    </edge>
    <edge id=":1550800449_2" function="internal">
        <lane id=":1550800449_2_0" index="0" disallow="tram rail_urban rail rail_electric rail_fast ship container cable_car subway aircraft wheelchair scooter drone" speed="5.56" length="9.14" shape="1972.95,1619.06 1974.78,1621.02 1976.57,1621.63 1978.32,1620.90 1980.03,1618.84"/>
    </edge>
    <edge id=":1550800449_3" function="internal">
        <lane id=":1550800449_3_0" index="0" allow="pedestrian bus" speed="4.17" length="15.44" width="2.00" shape="1972.95,1619.06 1975.03,1622.27 1976.89,1625.71 1978.42,1629.29 1979.55,1632.94"/>
    </edge>
    <edge id=":1550800449_w0" function="walkingarea">
        <lane id=":1550800449_w0_0" index="0" allow="pedestrian" speed="2.78" length="10.41" width="6.40" shape="1978.59,1633.24 1980.50,1632.64 1980.48,1629.66 1980.93,1627.87 1981.69,1625.90 1982.75,1623.72 1984.11,1621.36 1978.66,1618.00 1977.24,1619.53 1976.51,1619.74 1975.77,1619.58 1975.02,1619.04 1974.26,1618.14 1971.64,1619.99 1973.58,1622.59 1975.09,1624.53 1976.26,1626.18 1977.19,1627.94 1977.94,1630.19"/>
    </edge>
    <edge id=":1550800467_0" function="internal">
        <lane id=":1550800467_0_0" index="0" disallow="tram rail_urban rail rail_electric rail_fast ship container cable_car subway aircraft wheelchair scooter drone" speed="13.89" length="9.84" shape="1977.89,1792.78 1968.10,1793.73"/>
    </edge>
    <edge id=":1550800467_1" function="internal">
        <lane id=":1550800467_1_0" index="0" disallow="tram rail_urban rail rail_electric rail_fast ship container cable_car subway aircraft wheelchair scooter drone" speed="3.65" length="1.44" shape="1977.89,1792.78 1976.63,1792.08"/>
    </edge>
    <edge id=":1550800467_6" function="internal">
        <lane id=":1550800467_6_0" index="0" disallow="tram rail_urban rail rail_electric rail_fast ship container cable_car subway aircraft wheelchair scooter drone" speed="3.65" length="3.23" shape="1976.63,1792.08 1976.17,1791.32 1976.51,1790.49 1977.64,1789.59"/>
    </edge>
    <edge id=":1550800467_2" function="internal">
        <lane id=":1550800467_2_0" index="0" allow="pedestrian bus" speed="5.86" length="8.51" shape="1972.91,1784.24 1973.00,1786.74 1973.82,1788.46 1975.37,1789.42 1977.64,1789.59"/>
    </edge>
    <edge id=":1550800467_3" function="internal">
        <lane id=":1550800467_3_0" index="0" allow="pedestrian bus" speed="7.73" length="11.35" shape="1972.91,1784.24 1972.29,1788.22 1971.28,1791.12 1969.88,1792.96 1968.10,1793.73"/>
    </edge>
    <edge id=":1550800467_4" function="internal">
        <lane id=":1550800467_4_0" index="0" disallow="tram rail_urban rail rail_electric rail_fast ship container cable_car subway aircraft wheelchair scooter drone" speed="13.89" length="9.97" shape="1967.72,1790.55 1977.64,1789.59"/>
    </edge>
    <edge id=":1550800467_5" function="internal">
        <lane id=":1550800467_5_0" index="0" disallow="tram rail_urban rail rail_electric rail_fast ship container cable_car subway aircraft wheelchair scooter drone" speed="3.65" length="1.44" shape="1967.72,1790.55 1969.01,1791.21"/>
    </edge>
    <edge id=":1550800467_7" function="internal">
        <lane id=":1550800467_7_0" index="0" disallow="tram rail_urban rail rail_electric rail_fast ship container cable_car subway aircraft wheelchair scooter drone" speed="3.65" length="3.23" shape="1969.01,1791.21 1969.50,1791.95 1969.20,1792.80 1968.10,1793.73"/>
    </edge>
    <edge id=":1550800467_w0" function="walkingarea">
        <lane id=":1550800467_w0_0" index="0" allow="pedestrian" speed="2.78" length="8.29" width="6.40" shape="1978.02,1794.38 1977.51,1788.00 1975.34,1787.73 1974.62,1787.24 1974.14,1786.51 1973.90,1785.54 1973.90,1784.33 1971.91,1784.15 1971.24,1786.61 1970.61,1787.52 1969.78,1788.22 1968.75,1788.70 1967.53,1788.97 1968.29,1795.32"/>
    </edge>
    <edge id=":1550800473_0" function="internal">
        <lane id=":1550800473_0_0" index="0" disallow="tram rail_urban rail rail_electric rail_fast ship container cable_car subway aircraft wheelchair scooter drone" speed="7.28" length="10.05" shape="2457.93,1871.15 2455.73,1870.09 2453.50,1869.98 2451.23,1870.84 2448.92,1872.67"/>
    </edge>
    <edge id=":1550800473_1" function="internal">
        <lane id=":1550800473_1_0" index="0" disallow="tram rail_urban rail rail_electric rail_fast ship container cable_car subway aircraft wheelchair scooter drone" speed="13.89" length="14.55" shape="2457.93,1871.15 2445.96,1862.88"/>
    </edge>
    <edge id=":1550800473_2" function="internal">
        <lane id=":1550800473_2_0" index="0" disallow="tram rail_urban rail rail_electric rail_fast ship container cable_car subway aircraft wheelchair scooter drone" speed="3.65" length="1.44" shape="2457.93,1871.15 2457.42,1869.81"/>
    </edge>
    <edge id=":1550800473_9" function="internal">
        <lane id=":1550800473_9_0" index="0" disallow="tram rail_urban rail rail_electric rail_fast ship container cable_car subway aircraft wheelchair scooter drone" speed="3.65" length="3.23" shape="2457.42,1869.81 2457.55,1868.92 2458.34,1868.50 2459.78,1868.55"/>
    </edge>
    <edge id=":1550800473_3" function="internal">
        <lane id=":1550800473_3_0" index="0" disallow="tram rail_urban rail rail_electric rail_fast ship container cable_car subway aircraft wheelchair scooter drone" speed="13.89" length="14.63" shape="2447.75,1860.23 2459.78,1868.55"/>
    </edge>
    <edge id=":1550800473_4" function="internal">
        <lane id=":1550800473_4_0" index="0" disallow="tram rail_urban rail rail_electric rail_fast ship container cable_car subway aircraft wheelchair scooter drone" speed="7.69" length="4.36" shape="2447.75,1860.23 2450.88,1863.07 2450.93,1863.19"/>
    </edge>
    <edge id=":1550800473_5" function="internal">
        <lane id=":1550800473_5_0" index="0" disallow="tram rail_urban rail rail_electric rail_fast ship container cable_car subway aircraft wheelchair scooter drone" speed="3.65" length="1.44" shape="2447.75,1860.23 2448.29,1861.56"/>
    </edge>
    <edge id=":1550800473_10" function="internal">
        <lane id=":1550800473_10_0" index="0" disallow="tram rail_urban rail rail_electric rail_fast ship container cable_car subway aircraft wheelchair scooter drone" speed="7.69" length="10.64" shape="2450.93,1863.19 2452.12,1866.09 2451.47,1869.29 2448.92,1872.67"/>
    </edge>
    <edge id=":1550800473_11" function="internal">
        <lane id=":1550800473_11_0" index="0" disallow="tram rail_urban rail rail_electric rail_fast ship container cable_car subway aircraft wheelchair scooter drone" speed="3.65" length="3.23" shape="2448.29,1861.56 2448.18,1862.45 2447.40,1862.89 2445.96,1862.88"/>
    </edge>
    <edge id=":1550800473_6" function="internal">
        <lane id=":1550800473_6_0" index="0" disallow="tram rail_urban rail rail_electric rail_fast ship container cable_car subway aircraft wheelchair scooter drone" speed="6.12" length="9.06" shape="2446.67,1870.40 2448.21,1868.36 2448.60,1866.42 2447.85,1864.60 2445.96,1862.88"/>
    </edge>
    <edge id=":1550800473_7" function="internal">
        <lane id=":1550800473_7_0" index="0" disallow="tram rail_urban rail rail_electric rail_fast ship container cable_car subway aircraft wheelchair scooter drone" speed="8.65" length="14.59" shape="2446.67,1870.40 2449.95,1867.84 2453.23,1866.68 2456.51,1866.91 2459.78,1868.55"/>
    </edge>
    <edge id=":1550800473_8" function="internal">
        <lane id=":1550800473_8_0" index="0" disallow="tram rail_urban rail rail_electric rail_fast ship container cable_car subway aircraft wheelchair scooter drone" speed="3.65" length="1.44" shape="2446.67,1870.40 2448.08,1870.12"/>
    </edge>
    <edge id=":1550800473_12" function="internal">
        <lane id=":1550800473_12_0" index="0" disallow="tram rail_urban rail rail_electric rail_fast ship container cable_car subway aircraft wheelchair scooter drone" speed="3.65" length="3.23" shape="2448.08,1870.12 2448.93,1870.41 2449.21,1871.26 2448.92,1872.67"/>
    </edge>
    <edge id=":1550800473_w0" function="walkingarea">
        <lane id=":1550800473_w0_0" index="0" allow="pedestrian" speed="2.78" length="10.30" width="6.40" shape="2457.00,1872.46 2460.71,1867.24 2448.64,1858.90 2445.06,1864.21 2446.59,1865.77 2446.84,1866.59 2446.75,1867.45 2446.32,1868.34 2445.54,1869.26 2450.05,1873.81 2452.46,1872.03 2453.63,1871.64 2454.78,1871.58 2455.90,1871.85"/>
    </edge>
    <edge id=":2015079907_0" function="internal">
        <lane id=":2015079907_0_0" index="0" disallow="pedestrian tram rail_urban rail rail_electric rail_fast ship container cable_car subway aircraft wheelchair scooter drone" speed="16.67" length="0.50" shape="1686.85,48.39 1686.75,48.29 1686.67,48.22 1686.59,48.16 1686.46,48.09"/>
    </edge>
    <edge id=":2247860674_0" function="internal">